LAMMPS (12 Feb 2007)
# 2d Lennard-Jones melt and subsequent energy minimization

units		lj
dimension	2
atom_style	atomic

lattice		sq2 0.8442
Lattice spacing in x,y,z = 1.53919 1.53919 1.53919
region		box block 0 20 0 20 -0.1 0.1
create_box	1 box
Created box = (0 0 -0.153919) to (30.7838 30.7838 0.153919)
create_atoms	1
Created 800 atoms
mass		1 1.0

velocity	all create 5.0 87287 loop geom

pair_style	lj/cut 2.5
pair_coeff	1 1 1.0 1.0 2.5

neighbor	0.3 bin
neigh_modify	delay 0 every 1 check yes

fix		1 all nve
fix		2 all enforce2d

dump		1 all atom 100 dump.min

thermo		100

run		1000
Step Temp E_pair E_mol TotEng Press
0            5   -2.6248859            0    2.3657391    10.863748
Averages over the last 6 of 11 rows, steps 500 to 1000:
Temp E_pair E_mol TotEng Press
3.33781 -0.932765 0 2.39879 33.6227
Loop time of 1.20356 on 1 procs for 1000 steps with 800 atoms

Pair  time (%) = 0.766051 (63.649)
Neigh time (%) = 0.224616 (18.6627)
Comm  time (%) = 0.040716 (3.38298)
Outpt time (%) = 0.042399 (3.52281)
Other time (%) = 0.129774 (10.7825)

neigh_modify	delay 0 every 1 check yes

dump_modify	1 every 5
thermo		5
minimize	0.001 100 1000
Step Temp E_pair E_mol TotEng Press
1000    3.3011881  -0.89596181            0    2.3990365    34.054429
Loop time of 0.234251 on 1 procs for 36 steps with 800 atoms

Minimization stats:
  E initial, next-to-last, final = -0.895962 -2.94193 -2.94342
  Gradient 2-norm init/final= 1920.78 20.9992
  Gradient inf-norm init/final= 304.283 9.61216
  Iterations = 36
  Force evaluations = 177

Pair  time (%) = 0.158737 (67.7636)
Neigh time (%) = 0.016951 (7.23626)
Comm  time (%) = 0.004804 (2.05079)
Outpt time (%) = 0.029892 (12.7607)
Other time (%) = 0.023867 (10.1886)
