LAMMPS (7 Jul 2009)
# 2d Lennard-Jones melt and subsequent energy minimization

units		lj
dimension	2
atom_style	atomic

lattice		sq2 0.8442
Lattice spacing in x,y,z = 1.53919 1.53919 1.53919
region		box block 0 20 0 20 -0.1 0.1
create_box	1 box
Created orthogonal box = (0 0 -0.153919) to (30.7838 30.7838 0.153919)
create_atoms	1 box
Created 800 atoms
mass		1 1.0

velocity	all create 5.0 87287 loop geom

pair_style	lj/cut 2.5
pair_coeff	1 1 1.0 1.0 2.5
pair_modify	shift yes

neighbor	0.3 bin
neigh_modify	delay 0 every 1 check yes

fix		1 all nve
fix		2 all enforce2d

dump		1 all atom 100 dump.min

thermo		100

run		1000
Step Temp E_pair E_mol TotEng Press
0            5    -2.461717            0     2.532033    5.0190509
Averages over the last 6 of 11 rows, steps 500 to 1000:
Temp E_pair E_mol TotEng Press
3.33233 -0.796659 0 2.5315 15.5619
Loop time of 0.347681 on 1 procs for 1000 steps with 800 atoms

Pair  time (%) = 0.231485 (66.5796)
Neigh time (%) = 0.0640256 (18.4151)
Comm  time (%) = 0.00844383 (2.42862)
Outpt time (%) = 0.0124822 (3.59012)
Other time (%) = 0.0312445 (8.98655)

neigh_modify	delay 0 every 1 check yes

dump_modify	1 every 25
thermo		50
minimize	1.0e-6 0.001 1000 10000
Step Temp E_pair E_mol TotEng Press
1000    3.3142629  -0.77918518            0    2.5309349    15.655215
Loop time of 0.452104 on 1 procs for 311 steps with 800 atoms

Minimization stats:
  Stopping criterion = energy tolerance
  Energy initial, next-to-last, final =
  Force two-norm initial, final = 1916.37 0.588145
  Force max component initial, final = 301.855 0.143685
  Final line search alpha, max atom move = 0.00336226 0.000483107
  Iterations, force evaluations = 311 1065

Pair  time (%) = 0.371798 (82.2373)
Neigh time (%) = 0.0210452 (4.65495)
Comm  time (%) = 0.00599194 (1.32534)
Outpt time (%) = 0.0146515 (3.24075)
Other time (%) = 0.0386171 (8.54165)
