LAMMPS (5 Oct 2007)
# 2d Lennard-Jones melt and subsequent energy minimization

units		lj
dimension	2
atom_style	atomic

lattice		sq2 0.8442
Lattice spacing in x,y,z = 1.53919 1.53919 1.53919
region		box block 0 20 0 20 -0.1 0.1
create_box	1 box
Created orthogonal box = (0 0 -0.153919) to (30.7838 30.7838 0.153919)
create_atoms	1 box
Created 800 atoms
mass		1 1.0

velocity	all create 5.0 87287 loop geom

pair_style	lj/cut 2.5
pair_coeff	1 1 1.0 1.0 2.5

neighbor	0.3 bin
neigh_modify	delay 0 every 1 check yes

fix		1 all nve
fix		2 all enforce2d

dump		1 all atom 100 dump.min

thermo		100

run		1000
Step Temp E_pair E_mol TotEng Press
0            5   -2.6248859            0    2.3657391    5.0164128
Averages over the last 6 of 11 rows, steps 500 to 1000:
Temp E_pair E_mol TotEng Press
3.31385 -0.908591 0 2.39904 15.6914
Loop time of 0.528082 on 4 procs for 1000 steps with 800 atoms

Pair  time (%) = 0.0636179 (12.047)
Neigh time (%) = 0.0185205 (3.50712)
Comm  time (%) = 0.346179 (65.554)
Outpt time (%) = 0.0200128 (3.78971)
Other time (%) = 0.079752 (15.1022)

neigh_modify	delay 0 every 1 check yes

dump_modify	1 every 5
thermo		5
minimize	0.001 100 1000
Step Temp E_pair E_mol TotEng Press
1000    3.3072883  -0.90277016            0     2.398317     15.73487
Loop time of 0.1108 on 4 procs for 38 steps with 800 atoms

Minimization stats:
  E initial, next-to-last, final = -0.90277 -2.94232 -2.94388
  Gradient 2-norm init/final= 1856.29 22.1115
  Gradient inf-norm init/final= 282.389 7.156
  Iterations = 38
  Force evaluations = 148

Pair  time (%) = 0.0117812 (10.6328)
Neigh time (%) = 0.000997961 (0.900684)
Comm  time (%) = 0.0447497 (40.3877)
Outpt time (%) = 0.0136306 (12.3019)
Other time (%) = 0.0396408 (35.7768)
