LAMMPS (22 Jan 2008)
# 2d Lennard-Jones melt and subsequent energy minimization

units		lj
dimension	2
boundary	s s p
atom_style	atomic

lattice		sq2 0.8442
Lattice spacing in x,y,z = 1.53919 1.53919 1.53919
region		box block 0 20 0 20 -0.1 0.1
create_box	1 box
Created orthogonal box = (0 0 -0.153919) to (30.7838 30.7838 0.153919)
create_atoms	1 box
Created 841 atoms
mass		1 1.0

velocity	all create 5.0 87287 loop geom

pair_style	lj/cut 2.5
pair_coeff	1 1 1.0 1.0
pair_modify	shift yes

neighbor	0.3 bin
neigh_modify	delay 0 every 1 check yes

fix		1 all nve
fix		2 all wall/reflect xlo xhi ylo yhi
fix		3 all enforce2d

dump		1 all atom 50 dump.min

thermo		100

run		500
Step Temp E_pair E_mol TotEng Press Volume
0            5   -2.3392224            0    2.6518596    5.2514392    947.65505
Loop time of 0.331249 on 4 procs for 500 steps with 841 atoms

Pair  time (%) = 0.0336406 (10.1557)
Neigh time (%) = 0.00937784 (2.83105)
Comm  time (%) = 0.21005 (63.4114)
Outpt time (%) = 0.0165854 (5.00693)
Other time (%) = 0.0615957 (18.595)

min_style	cg
minimize	1.0e-16 1.0e-16 2000 20000
Step Temp E_pair E_mol TotEng Press Volume
500    3.2655218  -0.53947532            0    2.7202221    17.962423    933.55255
Averages over the last 10 of 19 rows, steps 1400 to 2205:
Temp E_pair E_mol TotEng Press Volume
3.26552 -2.90532 0 0.354378 2.84169 963.977
Loop time of 9.216 on 4 procs for 1705 steps with 841 atoms

Minimization stats:
  Stopping criterion = energy tolerance
  Energy initial, next-to-last, final =
  Force two-norm initial, final = 2031.66 2.66327e-05
  Force max component initial, final = 297.987 3.89961e-06
  Final line search alpha, max atom move = 7.28834e-10 2.84217e-15
  Iterations, force evaluations = 1705 13427

Pair  time (%) = 1.36367 (14.7968)
Neigh time (%) = 0.031518 (0.341992)
Comm  time (%) = 4.829 (52.398)
Outpt time (%) = 0.0586754 (0.636669)
Other time (%) = 2.93313 (31.8265)
