LAMMPS (22 Jan 2008)
# 2d Lennard-Jones melt and subsequent energy minimization

units		lj
dimension	2
atom_style	atomic

lattice		sq2 0.8442
Lattice spacing in x,y,z = 1.53919 1.53919 1.53919
region		box block 0 20 0 20 -0.1 0.1
create_box	1 box
Created orthogonal box = (0 0 -0.153919) to (30.7838 30.7838 0.153919)
create_atoms	1 box
Created 800 atoms
mass		1 1.0

velocity	all create 5.0 87287 loop geom

pair_style	lj/cut 2.5
pair_coeff	1 1 1.0 1.0 2.5

neighbor	0.3 bin
neigh_modify	delay 0 every 1 check yes

fix		1 all nve
fix		2 all enforce2d

dump		1 all atom 100 dump.min

thermo		100

run		1000
Step Temp E_pair E_mol TotEng Press
0            5   -2.6248859            0    2.3657391    5.0164128
Averages over the last 6 of 11 rows, steps 500 to 1000:
Temp E_pair E_mol TotEng Press
3.32876 -0.92417 0 2.39835 15.5193
Loop time of 0.34733 on 1 procs for 1000 steps with 800 atoms

Pair  time (%) = 0.233341 (67.1814)
Neigh time (%) = 0.0635982 (18.3106)
Comm  time (%) = 0.00819516 (2.35948)
Outpt time (%) = 0.0112507 (3.23921)
Other time (%) = 0.0309446 (8.90928)

neigh_modify	delay 0 every 1 check yes

dump_modify	1 every 5
thermo		5
minimize	0.001 100 1000
Step Temp E_pair E_mol TotEng Press
1000    3.2558363  -0.85179366            0    2.3979379    15.969928
Loop time of 0.0738001 on 1 procs for 39 steps with 800 atoms

Minimization stats:
  E initial, next-to-last, final = -0.851794 -2.93825 -2.93965
  Gradient 2-norm init/final= 1901.5 21.4893
  Gradient inf-norm init/final= 405.821 7.08876
  Iterations = 39
  Force evaluations = 158

Pair  time (%) = 0.056319 (76.3129)
Neigh time (%) = 0.00313663 (4.25018)
Comm  time (%) = 0.000870228 (1.17917)
Outpt time (%) = 0.0078578 (10.6474)
Other time (%) = 0.00561643 (7.61032)
