LAMMPS (5 Oct 2007)
# 2d Lennard-Jones melt and subsequent energy minimization

units		lj
dimension	2
atom_style	atomic

lattice		sq2 0.8442
Lattice spacing in x,y,z = 1.53919 1.53919 1.53919
region		box block 0 20 0 20 -0.1 0.1
create_box	1 box
Created orthogonal box = (0 0 -0.153919) to (30.7838 30.7838 0.153919)
create_atoms	1 box
Created 800 atoms
mass		1 1.0

velocity	all create 5.0 87287 loop geom

pair_style	lj/cut 2.5
pair_coeff	1 1 1.0 1.0 2.5

neighbor	0.3 bin
neigh_modify	delay 0 every 1 check yes

fix		1 all nve
fix		2 all enforce2d

dump		1 all atom 100 dump.min

thermo		100

run		1000
Step Temp E_pair E_mol TotEng Press
0            5   -2.6248859            0    2.3657391    5.0164128
Averages over the last 6 of 11 rows, steps 500 to 1000:
Temp E_pair E_mol TotEng Press
3.31263 -0.907419 0 2.399 15.7005
Loop time of 0.351552 on 1 procs for 1000 steps with 800 atoms

Pair  time (%) = 0.235668 (67.0364)
Neigh time (%) = 0.0651896 (18.5434)
Comm  time (%) = 0.00832987 (2.36946)
Outpt time (%) = 0.0113287 (3.22248)
Other time (%) = 0.0310361 (8.82832)

neigh_modify	delay 0 every 1 check yes

dump_modify	1 every 5
thermo		5
minimize	0.001 100 1000
Step Temp E_pair E_mol TotEng Press
1000    3.2991999   -0.8948518            0    2.3981621    15.795094
Loop time of 0.065309 on 1 procs for 39 steps with 800 atoms

Minimization stats:
  E initial, next-to-last, final = -0.894852 -2.94392 -2.94559
  Gradient 2-norm init/final= 1841.9 22.7232
  Gradient inf-norm init/final= 264.563 6.74037
  Iterations = 39
  Force evaluations = 159

Pair  time (%) = 0.0471394 (72.179)
Neigh time (%) = 0.00358057 (5.4825)
Comm  time (%) = 0.000929832 (1.42374)
Outpt time (%) = 0.00789285 (12.0854)
Other time (%) = 0.00576639 (8.82939)
