LAMMPS (9 Jan 2009)
# 2d Lennard-Jones melt and subsequent energy minimization

units		lj
dimension	2
atom_style	atomic

lattice		sq2 0.8442
Lattice spacing in x,y,z = 1.53919 1.53919 1.53919
region		box block 0 20 0 20 -0.1 0.1
create_box	1 box
Created orthogonal box = (0 0 -0.153919) to (30.7838 30.7838 0.153919)
create_atoms	1 box
Created 800 atoms
mass		1 1.0

velocity	all create 5.0 87287 loop geom

pair_style	lj/cut 2.5
pair_coeff	1 1 1.0 1.0 2.5
pair_modify	shift yes

neighbor	0.3 bin
neigh_modify	delay 0 every 1 check yes

fix		1 all nve
fix		2 all enforce2d

dump		1 all atom 100 dump.min

thermo		100

run		1000
Step Temp E_pair E_mol TotEng Press
0            5    -2.461717            0     2.532033    5.0190509
Averages over the last 6 of 11 rows, steps 500 to 1000:
Temp E_pair E_mol TotEng Press
3.32768 -0.791964 0 2.53155 15.5869
Loop time of 0.510269 on 4 procs for 1000 steps with 800 atoms

Pair  time (%) = 0.0683098 (13.387)
Neigh time (%) = 0.0191985 (3.76244)
Comm  time (%) = 0.319346 (62.584)
Outpt time (%) = 0.021825 (4.27715)
Other time (%) = 0.081589 (15.9894)

neigh_modify	delay 0 every 1 check yes

dump_modify	1 every 25
thermo		50
minimize	1.0e-6 0.001 1000 10000
Step Temp E_pair E_mol TotEng Press
1000     3.287472  -0.75213644            0    2.5312262    15.801806
Loop time of 0.732036 on 4 procs for 326 steps with 800 atoms

Minimization stats:
  Stopping criterion = energy tolerance
  Energy initial, next-to-last, final =
  Force two-norm initial, final = 1981.45 0.760495
  Force max component initial, final = 387.785 0.166498
  Final line search alpha, max atom move = 0.00240665 0.000400702
  Iterations, force evaluations = 326 1206

Pair  time (%) = 0.124146 (16.959)
Neigh time (%) = 0.00497228 (0.679239)
Comm  time (%) = 0.342775 (46.8249)
Outpt time (%) = 0.021087 (2.88059)
Other time (%) = 0.239055 (32.6562)
