LAMMPS (12 Feb 2007)
# 2d Lennard-Jones melt and subsequent energy minimization

units		lj
dimension	2
atom_style	atomic

lattice		sq2 0.8442
Lattice spacing in x,y,z = 1.53919 1.53919 1.53919
region		box block 0 20 0 20 -0.1 0.1
create_box	1 box
Created box = (0 0 -0.153919) to (30.7838 30.7838 0.153919)
create_atoms	1
Created 800 atoms
mass		1 1.0

velocity	all create 5.0 87287 loop geom

pair_style	lj/cut 2.5
pair_coeff	1 1 1.0 1.0 2.5

neighbor	0.3 bin
neigh_modify	delay 0 every 1 check yes

fix		1 all nve
fix		2 all enforce2d

dump		1 all atom 100 dump.min

thermo		100

run		1000
Step Temp E_pair E_mol TotEng Press
0            5   -2.6248859            0    2.3657391    10.863748
Averages over the last 6 of 11 rows, steps 500 to 1000:
Temp E_pair E_mol TotEng Press
3.33887 -0.933844 0 2.39877 33.6124
Loop time of 0.377246 on 4 procs for 1000 steps with 800 atoms

Pair  time (%) = 0.098482 (26.1055)
Neigh time (%) = 0.0318925 (8.45403)
Comm  time (%) = 0.175421 (46.5006)
Outpt time (%) = 0.0234827 (6.22477)
Other time (%) = 0.0479671 (12.7151)

neigh_modify	delay 0 every 1 check yes

dump_modify	1 every 5
thermo		5
minimize	0.001 100 1000
Step Temp E_pair E_mol TotEng Press
1000    3.3077995  -0.90272314            0    2.3988743    33.989676
Loop time of 0.0975236 on 4 procs for 38 steps with 800 atoms

Minimization stats:
  E initial, next-to-last, final = -0.902723 -2.94694 -2.94868
  Gradient 2-norm init/final= 1904.03 22.323
  Gradient inf-norm init/final= 304.285 10.0504
  Iterations = 38
  Force evaluations = 185

Pair  time (%) = 0.0225257 (23.0977)
Neigh time (%) = 0.00271821 (2.78723)
Comm  time (%) = 0.0309407 (31.7263)
Outpt time (%) = 0.0167403 (17.1654)
Other time (%) = 0.0245988 (25.2234)
