LAMMPS (22 June 2007)
# 2d NEMD simulation

units		lj
atom_style	atomic
dimension	2d

lattice		sq2 0.8442
Lattice spacing in x,y,z = 1.53919 1.53919 1.53919
region		box prism 0 10 0 8 -0.5 0.5 0 0 0
create_box	2 box
Created triclinic box = (0 0 -0.769595) to (15.3919 12.3135 0.769595) with tilt (0 0 0)
create_atoms	1 box
Created 160 atoms
mass		* 1.0

velocity	all create 1.44 87287 loop geom

region		slice block 4 6 INF INF INF INF
set		region slice type 2
  40 settings made for type

pair_style	lj/cut 2.5
pair_coeff	* * 1.0 1.0 1.0

neighbor	0.3 bin
neigh_modify	delay 0 every 1

fix		1 all nvt/sllod 1.0 1.0 1.0
fix		2 all deform 1 xy erate 0.01 remap v

dump		1 all custom 500 dump.nemd tag type x y z

thermo		1000

run		50000
Step Temp E_pair E_mol TotEng Press Volume
0         1.44            0            0       1.4265   0.52159515    291.72051
Averages over the last 26 of 51 rows, steps 25000 to 50000:
Temp E_pair E_mol TotEng Press Volume
1.01345 0.28175 0 1.2857 2.70615 291.721
Loop time of 9.10519 on 4 procs for 50000 steps with 160 atoms

Pair  time (%) = 0.15942 (1.75087)
Neigh time (%) = 0.107759 (1.18349)
Comm  time (%) = 5.86661 (64.4315)
Outpt time (%) = 0.052742 (0.579252)
Other time (%) = 2.91866 (32.0549)
