LAMMPS (22 June 2007)
# 2d LJ crack simulation

dimension	2
boundary	s s p

atom_style	atomic
neighbor	0.3 bin
neigh_modify	delay 5

# create geometry

lattice		hex 0.93
Lattice spacing in x,y,z = 1.11428 1.92998 1.11428
region		box block 0 100 0 40 -0.25 0.25
create_box	5 box
Created orthogonal box = (0 0 -0.278569) to (111.428 77.1994 0.278569)
create_atoms	1 box
Created 8141 atoms

mass		1 1.0
mass		2 1.0
mass		3 1.0
mass		4 1.0
mass		5 1.0

# LJ potentials

pair_style	lj/cut 2.5
pair_coeff	* * 1.0 1.0 2.5

# define groups

region	        1 block INF INF INF 1.25 INF INF
group		lower region 1
302 atoms in group lower
region		2 block INF INF 38.75 INF INF INF
group		upper region 2
302 atoms in group upper
group		boundary union lower upper
604 atoms in group boundary
group		mobile subtract all boundary
7537 atoms in group mobile

region		leftupper block INF 20 20 INF INF INF
region		leftlower block INF 20 INF 20 INF INF
group		leftupper region leftupper
820 atoms in group leftupper
group		leftlower region leftlower
841 atoms in group leftlower

set		group leftupper type 2
  820 settings made for type
set		group leftlower type 3
  841 settings made for type
set		group lower type 4
  302 settings made for type
set		group upper type 5
  302 settings made for type

# initial velocities

compute	  	new mobile temp
velocity	mobile create 0.01 887723 temp new
velocity	upper set 0.0 0.3 0.0
velocity	mobile ramp vy 0.0 0.3 y 1.25 38.75 sum yes

# fixes

fix		1 all nve
fix		2 boundary setforce NULL 0.0 0.0

# run

timestep	0.003
thermo		200
thermo_modify	temp new

neigh_modify	exclude type 2 3
dump		1 all atom 500 dump.crack
run		5000
Step Temp E_pair E_mol TotEng Press Volume
0  0.065996472   -3.2595015            0   -3.1984136  -0.04302381    4792.6107
Averages over the last 13 of 26 rows, steps 2600 to 5000:
Temp E_pair E_mol TotEng Press Volume
0.0830788 -3.08831 0 -3.01141 -1.41635 5150.85
Loop time of 7.15681 on 4 procs for 5000 steps with 8141 atoms

Pair  time (%) = 4.67775 (65.3608)
Neigh time (%) = 0.180912 (2.52784)
Comm  time (%) = 1.1892 (16.6164)
Outpt time (%) = 0.174089 (2.4325)
Other time (%) = 0.934854 (13.0624)
