LAMMPS (5 Oct 2007)
# RESquared ellipsoids in LJ background fluid

units	     lj
atom_style   ellipsoid
dimension    2

lattice	     sq 0.02
Lattice spacing in x,y,z = 7.07107 7.07107 7.07107
region	     box block 0 20 0 20 -0.5 0.5
create_box   2 box
Created orthogonal box = (0 0 -3.53553) to (141.421 141.421 3.53553)
create_atoms 1 box
Created 400 atoms

set	     group all type/fraction 2 0.1 95392
  38 settings made for type/fraction
set	     group all quat/random 18238
  400 settings made for quat/random

mass	     1 1.0
mass	     2 1.5
shape	     1 1 1 1
shape	     2 3 1 1

compute	     rot all temp/asphere
velocity     all create 2.4 87287 loop geom

#pair_style   gayberne 1.0 3.0 1.0 4.0
#pair_coeff   1 1 3.0 1.0 1 1 1 1 1 1 2.5
#pair_coeff   1 2 3.0 1.0 1 1 1 0 0 0
#pair_coeff   2 2 1.0 1.0 1 1 0.2 0 0 0

pair_style   resquared 4.0
pair_coeff   1 1 3.0 1 1 1 1 1 1 1 2.5
pair_coeff   1 2 3.0 1 1 1 1 0 0 0
pair_coeff   2 2 1.0 1 1 1 0.2 0 0 0

neighbor     0.8 bin

thermo_style custom step c_rot epair etotal press vol
thermo	     100

timestep     0.002

#dump	     1 all custom 100 dump.gayberne #	     tag type x y z quatw quati quatj quatk

dump	     1 all custom 100 dump.resquared 	     tag type x y z quatw quati quatj quatk

fix	     1 all npt/asphere 2.0 2.0 0.1 xyz 0.0 1.0 1.0
fix	     2 all enforce2d

# equilibrate to shrink box around dilute system

run	     2000
Step rot E_pair TotEng Press Volume
0    2.1910653            0        2.391      0.04782        20000
Averages over the last 11 of 21 rows, steps 1000 to 2000:
rot E_pair TotEng Press Volume
1.99975 0.115019 2.16967 0.82008 2431.24
Loop time of 1.82386 on 4 procs for 2000 steps with 400 atoms

Pair  time (%) = 0.505425 (27.7118)
Neigh time (%) = 0.00490487 (0.268927)
Comm  time (%) = 0.801568 (43.9489)
Outpt time (%) = 0.0571777 (3.13498)
Other time (%) = 0.454788 (24.9354)

# run dynamics on dense system

unfix	     1
fix	     1 all nve/asphere

run	     2000
Step rot E_pair TotEng Press Volume
2000    2.3775502   0.31125894    2.8031834    1.9866756    1686.1093
Averages over the last 11 of 21 rows, steps 3000 to 4000:
rot E_pair TotEng Press Volume
2.46816 0.212324 2.78598 1.63405 1686.11
Loop time of 2.04081 on 4 procs for 2000 steps with 400 atoms

Pair  time (%) = 0.93536 (45.8329)
Neigh time (%) = 0.00250566 (0.122778)
Comm  time (%) = 0.843584 (41.3358)
Outpt time (%) = 0.0581496 (2.84934)
Other time (%) = 0.201209 (9.85927)
