LAMMPS (22 June 2007)
# Ellipsoids in LJ background fluid

units	     lj
atom_style   ellipsoid
dimension    2

lattice	     sq 0.02
Lattice spacing in x,y,z = 7.07107 7.07107 7.07107
region	     box block 0 20 0 20 -0.5 0.5
create_box   2 box
Created orthogonal box = (0 0 -3.53553) to (141.421 141.421 3.53553)
create_atoms 1 box
Created 400 atoms

set	     group all type/fraction 2 0.1 95392
  38 settings made for type/fraction
set	     group all quat/random 18238
  400 settings made for quat/random

mass	     1 1.0
mass	     2 1.5
shape	     1 1 1 1
shape	     2 3 1 1

compute	     rot all temp/asphere
velocity     all create 2.4 87287 loop geom

pair_style   gayberne 1.0 3.0 1.0 4.0
pair_coeff   1 1 3.0 1.0 1 1 1 1 1 1 2.5
pair_coeff   1 2 3.0 1.0 1 1 1 0 0 0
pair_coeff   2 2 1.0 1.0 1 1 0.2 0 0 0

neighbor     0.8 bin

thermo_style custom step c_rot epair etotal press vol
thermo	     100

timestep     0.002

dump	     1 all custom 100 dump.ellipse 	     tag type x y z quatw quati quatj quatk

fix	     1 all npt/asphere 2.0 2.0 0.1 xyz 0.0 1.0 1.0
fix	     2 all enforce2d

# equilibrate to shrink box around dilute system

run	     2000
Step rot E_pair TotEng Press Volume
0    2.1910653            0        2.391 0.0045085128    141421.36
Averages over the last 11 of 21 rows, steps 1000 to 2000:
rot E_pair TotEng Press Volume
2.10067 -4.00489 -1.81646 0.779807 1576.64
Loop time of 5.79084 on 1 procs for 2000 steps with 400 atoms

Pair  time (%) = 4.47783 (77.3261)
Neigh time (%) = 0.055152 (0.9524)
Comm  time (%) = 0.092337 (1.59453)
Outpt time (%) = 0.101419 (1.75137)
Other time (%) = 1.0641 (18.3756)

# run dynamics on dense system

unfix	     1
fix	     1 all nve/asphere

run	     2000
Step rot E_pair TotEng Press Volume
2000    1.8074681   -5.0525831    -3.180309   0.86237472     964.0263
Averages over the last 11 of 21 rows, steps 3000 to 4000:
rot E_pair TotEng Press Volume
1.74089 -4.97486 -3.15674 0.839724 964.026
Loop time of 7.49334 on 1 procs for 2000 steps with 400 atoms

Pair  time (%) = 6.37188 (85.0339)
Neigh time (%) = 0.030365 (0.405227)
Comm  time (%) = 0.110936 (1.48046)
Outpt time (%) = 0.100005 (1.33459)
Other time (%) = 0.880153 (11.7458)
