LAMMPS (22 Jan 2008)
# GayBerne ellipsoids in LJ background fluid

units	     lj
atom_style   ellipsoid
dimension    2

lattice	     sq 0.02
Lattice spacing in x,y,z = 7.07107 7.07107 7.07107
region	     box block 0 20 0 20 -0.5 0.5
create_box   2 box
Created orthogonal box = (0 0 -3.53553) to (141.421 141.421 3.53553)
create_atoms 1 box
Created 400 atoms

set	     group all type/fraction 2 0.1 95392
  45 settings made for type/fraction
set	     group all quat/random 18238
  400 settings made for quat/random

mass	     1 1.0
mass	     2 1.5
shape	     1 1 1 1
shape	     2 3 1 1

compute	     rot all temp/asphere
velocity     all create 2.4 87287 loop geom

pair_style   gayberne 1.0 3.0 1.0 4.0
pair_coeff   1 1 3.0 1.0 1 1 1 1 1 1 2.5
pair_coeff   1 2 3.0 1.0 1 1 1 0 0 0
pair_coeff   2 2 1.0 1.0 1 1 0.2 0 0 0

#pair_style   resquared 4.0
#pair_coeff   1 1 3.0 1 1 1 1 1 1 1 2.5
#pair_coeff   1 2 3.0 1 1 1 1 0 0 0
#pair_coeff   2 2 1.0 1 1 1 0.2 0 0 0

neighbor     0.8 bin

thermo_style custom step c_rot epair etotal press vol
thermo	     100

timestep     0.002

dump	     1 all custom 100 dump.gayberne 	     tag type x y z quatw quati quatj quatk

#dump	     1 all custom 100 dump.resquared #	     tag type x y z quatw quati quatj quatk

fix	     1 all npt/asphere 2.0 2.0 0.1 xyz 0.0 1.0 1.0
fix	     2 all enforce2d

# equilibrate to shrink box around dilute system

run	     2000
Step rot E_pair TotEng Press Volume
0    2.1564825            0        2.391      0.04782        20000
Averages over the last 11 of 21 rows, steps 1000 to 2000:
rot E_pair TotEng Press Volume
1.95184 -3.63695 -1.58257 1.00573 998.523
Loop time of 1.24429 on 1 procs for 2000 steps with 400 atoms

Pair  time (%) = 0.909927 (73.1284)
Neigh time (%) = 0.0135996 (1.09297)
Comm  time (%) = 0.0220442 (1.77163)
Outpt time (%) = 0.0341184 (2.74201)
Other time (%) = 0.264597 (21.2649)

# run dynamics on dense system

unfix	     1
fix	     1 all nve/asphere

run	     2000
Step rot E_pair TotEng Press Volume
2000    1.9665091   -3.2421939   -1.2158182   0.66817261    1162.3788
Averages over the last 11 of 21 rows, steps 3000 to 4000:
rot E_pair TotEng Press Volume
1.96531 -3.24191 -1.19024 0.719596 1162.38
Loop time of 1.41674 on 1 procs for 2000 steps with 400 atoms

Pair  time (%) = 1.12906 (79.6942)
Neigh time (%) = 0.00786209 (0.554944)
Comm  time (%) = 0.0250032 (1.76484)
Outpt time (%) = 0.0342295 (2.41608)
Other time (%) = 0.220585 (15.5699)
