LAMMPS (21 May 2008)
# GayBerne ellipsoids in LJ background fluid

units	     lj
atom_style   ellipsoid
dimension    2

lattice	     sq 0.02
Lattice spacing in x,y,z = 7.07107 7.07107 7.07107
region	     box block 0 20 0 20 -0.5 0.5
create_box   2 box
Created orthogonal box = (0 0 -3.53553) to (141.421 141.421 3.53553)
create_atoms 1 box
Created 400 atoms

set	     group all type/fraction 2 0.1 95392
  45 settings made for type/fraction
set	     group all quat/random 18238
  400 settings made for quat/random

mass	     1 1.0
mass	     2 1.5
shape	     1 1 1 1
shape	     2 3 1 1

compute	     rot all temp/asphere
velocity     all create 2.4 87287 loop geom

pair_style   gayberne 1.0 3.0 1.0 4.0
pair_coeff   1 1 3.0 1.0 1 1 1 1 1 1 2.5
pair_coeff   1 2 3.0 1.0 1 1 1 0 0 0
pair_coeff   2 2 1.0 1.0 1 1 0.2 0 0 0

#pair_style   resquared 4.0
#pair_coeff   1 1 3.0 1 1 1 1 1 1 1 2.5
#pair_coeff   1 2 3.0 1 1 1 1 0 0 0
#pair_coeff   2 2 1.0 1 1 1 0.2 0 0 0

neighbor     0.8 bin

thermo_style custom step c_rot epair etotal press vol
thermo	     100

timestep     0.002

dump	     1 all custom 100 dump.ellipse.gayberne 	     tag type x y z quatw quati quatj quatk

#dump	     1 all custom 100 dump.ellipse.resquared #	     tag type x y z quatw quati quatj quatk

fix	     1 all npt/asphere 2.0 2.0 0.1 xyz 0.0 1.0 1.0
fix	     2 all enforce2d

# equilibrate to shrink box around dilute system

run	     2000
Step rot E_pair TotEng Press Volume
0    2.2718861            0        2.394      0.04788        20000
Averages over the last 11 of 21 rows, steps 1000 to 2000:
rot E_pair TotEng Press Volume
1.95017 -3.77987 -1.82969 1.05519 972.297
Loop time of 1.2504 on 1 procs for 2000 steps with 400 atoms

Pair  time (%) = 0.93252 (74.5778)
Neigh time (%) = 0.0132384 (1.05874)
Comm  time (%) = 0.0220492 (1.76337)
Outpt time (%) = 0.0338867 (2.71007)
Other time (%) = 0.248705 (19.89)

# run dynamics on dense system

unfix	     1
fix	     1 all nve/asphere

run	     2000
Step rot E_pair TotEng Press Volume
2000    1.9636929   -3.1701486   -1.2453089    1.1030872    1176.9149
Averages over the last 11 of 21 rows, steps 3000 to 4000:
rot E_pair TotEng Press Volume
2.02207 -3.23563 -1.20964 0.526107 1176.91
Loop time of 1.4074 on 1 procs for 2000 steps with 400 atoms

Pair  time (%) = 1.14031 (81.0225)
Neigh time (%) = 0.00835967 (0.593981)
Comm  time (%) = 0.0250871 (1.78252)
Outpt time (%) = 0.033994 (2.41538)
Other time (%) = 0.199648 (14.1856)
