LAMMPS (5 Oct 2007)
# Ellipsoids in LJ background fluid

units	     lj
atom_style   ellipsoid
dimension    2

lattice	     sq 0.02
Lattice spacing in x,y,z = 7.07107 7.07107 7.07107
region	     box block 0 20 0 20 -0.5 0.5
create_box   2 box
Created orthogonal box = (0 0 -3.53553) to (141.421 141.421 3.53553)
create_atoms 1 box
Created 400 atoms

set	     group all type/fraction 2 0.1 95392
  38 settings made for type/fraction
set	     group all quat/random 18238
  400 settings made for quat/random

mass	     1 1.0
mass	     2 1.5
shape	     1 1 1 1
shape	     2 3 1 1

compute	     rot all temp/asphere
velocity     all create 2.4 87287 loop geom

pair_style   gayberne 1.0 3.0 1.0 4.0
pair_coeff   1 1 3.0 1.0 1 1 1 1 1 1 2.5
pair_coeff   1 2 3.0 1.0 1 1 1 0 0 0
pair_coeff   2 2 1.0 1.0 1 1 0.2 0 0 0

neighbor     0.8 bin

thermo_style custom step c_rot epair etotal press vol
thermo	     100

timestep     0.002

dump	     1 all custom 100 dump.ellipse 	     tag type x y z quatw quati quatj quatk

fix	     1 all npt/asphere 2.0 2.0 0.1 xyz 0.0 1.0 1.0
fix	     2 all enforce2d

# equilibrate to shrink box around dilute system

run	     2000
Step rot E_pair TotEng Press Volume
0    2.1910653            0        2.391      0.04782        20000
Averages over the last 11 of 21 rows, steps 1000 to 2000:
rot E_pair TotEng Press Volume
1.94345 -3.87402 -1.84803 1.05423 947.709
Loop time of 1.34096 on 1 procs for 2000 steps with 400 atoms

Pair  time (%) = 0.998966 (74.4963)
Neigh time (%) = 0.0142684 (1.06404)
Comm  time (%) = 0.0232384 (1.73297)
Outpt time (%) = 0.0350761 (2.61574)
Other time (%) = 0.269413 (20.091)

# run dynamics on dense system

unfix	     1
fix	     1 all nve/asphere

run	     2000
Step rot E_pair TotEng Press Volume
2000     1.913813   -3.4337877   -1.4476809   0.76521957    1122.0104
Averages over the last 11 of 21 rows, steps 3000 to 4000:
rot E_pair TotEng Press Volume
1.88102 -3.39866 -1.44166 0.549573 1122.01
Loop time of 1.50554 on 1 procs for 2000 steps with 400 atoms

Pair  time (%) = 1.22338 (81.2585)
Neigh time (%) = 0.0090003 (0.597811)
Comm  time (%) = 0.0273209 (1.81468)
Outpt time (%) = 0.0354002 (2.35132)
Other time (%) = 0.210441 (13.9777)
