LAMMPS (22 Jan 2008)
# RESquared ellipsoids in LJ background fluid

units	     lj
atom_style   ellipsoid
dimension    2

lattice	     sq 0.02
Lattice spacing in x,y,z = 7.07107 7.07107 7.07107
region	     box block 0 20 0 20 -0.5 0.5
create_box   2 box
Created orthogonal box = (0 0 -3.53553) to (141.421 141.421 3.53553)
create_atoms 1 box
Created 400 atoms

set	     group all type/fraction 2 0.1 95392
  45 settings made for type/fraction
set	     group all quat/random 18238
  400 settings made for quat/random

mass	     1 1.0
mass	     2 1.5
shape	     1 1 1 1
shape	     2 3 1 1

compute	     rot all temp/asphere
velocity     all create 2.4 87287 loop geom

#pair_style   gayberne 1.0 3.0 1.0 4.0
#pair_coeff   1 1 3.0 1.0 1 1 1 1 1 1 2.5
#pair_coeff   1 2 3.0 1.0 1 1 1 0 0 0
#pair_coeff   2 2 1.0 1.0 1 1 0.2 0 0 0

pair_style   resquared 4.0
pair_coeff   1 1 3.0 1 1 1 1 1 1 1 2.5
pair_coeff   1 2 3.0 1 1 1 1 0 0 0
pair_coeff   2 2 1.0 1 1 1 0.2 0 0 0

neighbor     0.8 bin

thermo_style custom step c_rot epair etotal press vol
thermo	     100

timestep     0.002

#dump	     1 all custom 100 dump.gayberne #	     tag type x y z quatw quati quatj quatk

dump	     1 all custom 100 dump.resquared 	     tag type x y z quatw quati quatj quatk

fix	     1 all npt/asphere 2.0 2.0 0.1 xyz 0.0 1.0 1.0
fix	     2 all enforce2d

# equilibrate to shrink box around dilute system

run	     2000
Step rot E_pair TotEng Press Volume
0    2.1564825            0        2.391      0.04782        20000
Averages over the last 11 of 21 rows, steps 1000 to 2000:
rot E_pair TotEng Press Volume
2.00745 0.120782 2.23017 0.83245 2463.88
Loop time of 1.70624 on 4 procs for 2000 steps with 400 atoms

Pair  time (%) = 0.53287 (31.2306)
Neigh time (%) = 0.00461602 (0.270537)
Comm  time (%) = 0.702465 (41.1703)
Outpt time (%) = 0.0564025 (3.30566)
Other time (%) = 0.40989 (24.0229)

# run dynamics on dense system

unfix	     1
fix	     1 all nve/asphere

run	     2000
Step rot E_pair TotEng Press Volume
2000     1.989287   0.23799274    2.3113674    1.6330055    1665.9849
Averages over the last 11 of 21 rows, steps 3000 to 4000:
rot E_pair TotEng Press Volume
2.02357 0.200056 2.32261 1.47447 1665.98
Loop time of 1.94966 on 4 procs for 2000 steps with 400 atoms

Pair  time (%) = 1.01464 (52.0418)
Neigh time (%) = 0.00212574 (0.109032)
Comm  time (%) = 0.695318 (35.6636)
Outpt time (%) = 0.0557072 (2.85728)
Other time (%) = 0.181869 (9.32825)
