LAMMPS (10 Sep 2010)
# GayBerne ellipsoids in LJ background fluid

units	     lj
atom_style   ellipsoid
dimension    2

lattice	     sq 0.02
Lattice spacing in x,y,z = 7.07107 7.07107 7.07107
region	     box block 0 20 0 20 -0.5 0.5
create_box   2 box
Created orthogonal box = (0 0 -3.53553) to (141.421 141.421 3.53553)
create_atoms 1 box
Created 400 atoms

set	     group all type/fraction 2 0.1 95392
  45 settings made for type/fraction
set	     group all quat/random 18238
  400 settings made for quat/random

mass	     1 1.0
mass	     2 1.5
shape	     1 1 1 1
shape	     2 3 1 1

compute	     rot all temp/asphere
group	     spheroid type 1
355 atoms in group spheroid
variable     dof equal count(spheroid)+2
compute_modify rot extra 357

velocity     all create 2.4 87287 loop geom

pair_style   gayberne 1.0 3.0 1.0 4.0
pair_coeff   1 1 3.0 1.0 1 1 1 1 1 1 2.5
pair_coeff   1 2 3.0 1.0 1 1 1 0 0 0
pair_coeff   2 2 1.0 1.0 1 1 0.2 0 0 0

#pair_style   resquared 4.0
#pair_coeff   1 1 3.0 1 1 1 1 1 1 1 2.5
#pair_coeff   1 2 3.0 1 1 1 1 0 0 0
#pair_coeff   2 2 1.0 1 1 1 0.2 0 0 0

neighbor     0.8 bin

thermo_style custom step c_rot epair etotal press vol
thermo	     100

timestep     0.002

dump	     1 all custom 100 dump.ellipse.gayberne 	     id type x y z quatw quati quatj quatk

#dump	     1 all custom 100 dump.ellipse.resquared #	     id type x y z quatw quati quatj quatk

fix	     1 all npt/asphere temp 2.0 2.0 0.1 iso 0.0 1.0 1.0 	       mtk no pchain 0 tchain 1
fix	     2 all enforce2d

compute_modify 1_temp extra 357

# equilibrate to shrink box around dilute system

run	     2000
Step rot E_pair TotEng Press Volume
0    2.2718861            0        2.394      0.04788        20000
Averages over the last 11 of 21 rows, steps 1000 to 2000:
rot E_pair TotEng Press Volume
1.96375 -3.79599 -1.83028 0.999253 972.787
Loop time of 0.476776 on 4 procs for 2000 steps with 400 atoms

Pair  time (%) = 0.238156 (49.9513)
Neigh time (%) = 0.00350028 (0.734157)
Comm  time (%) = 0.0994155 (20.8516)
Outpt time (%) = 0.0352384 (7.39098)
Other time (%) = 0.100466 (21.0719)

# run dynamics on dense system

unfix	     1
fix	     1 all nve/asphere

run	     2000
Step rot E_pair TotEng Press Volume
2000    2.0794708    -3.253147   -1.2230906    0.4949131    1187.4615
Averages over the last 11 of 21 rows, steps 3000 to 4000:
rot E_pair TotEng Press Volume
2.04135 -3.21792 -1.17236 0.594579 1187.46
Loop time of 0.544405 on 4 procs for 2000 steps with 400 atoms

Pair  time (%) = 0.295343 (54.2506)
Neigh time (%) = 0.00209796 (0.385368)
Comm  time (%) = 0.151207 (27.7748)
Outpt time (%) = 0.0353975 (6.50206)
Other time (%) = 0.0603593 (11.0872)
