LAMMPS (21 May 2008)
# RESquared ellipsoids in LJ background fluid

units	     lj
atom_style   ellipsoid
dimension    2

lattice	     sq 0.02
Lattice spacing in x,y,z = 7.07107 7.07107 7.07107
region	     box block 0 20 0 20 -0.5 0.5
create_box   2 box
Created orthogonal box = (0 0 -3.53553) to (141.421 141.421 3.53553)
create_atoms 1 box
Created 400 atoms

set	     group all type/fraction 2 0.1 95392
  45 settings made for type/fraction
set	     group all quat/random 18238
  400 settings made for quat/random

mass	     1 1.0
mass	     2 1.5
shape	     1 1 1 1
shape	     2 3 1 1

compute	     rot all temp/asphere
velocity     all create 2.4 87287 loop geom

#pair_style   gayberne 1.0 3.0 1.0 4.0
#pair_coeff   1 1 3.0 1.0 1 1 1 1 1 1 2.5
#pair_coeff   1 2 3.0 1.0 1 1 1 0 0 0
#pair_coeff   2 2 1.0 1.0 1 1 0.2 0 0 0

pair_style   resquared 4.0
pair_coeff   1 1 3.0 1 1 1 1 1 1 1 2.5
pair_coeff   1 2 3.0 1 1 1 1 0 0 0
pair_coeff   2 2 1.0 1 1 1 0.2 0 0 0

neighbor     0.8 bin

thermo_style custom step c_rot epair etotal press vol
thermo	     100

timestep     0.002

#dump	     1 all custom 100 dump.ellipse.gayberne #	     tag type x y z quatw quati quatj quatk

dump	     1 all custom 100 dump.ellipse.resquared 	     tag type x y z quatw quati quatj quatk

fix	     1 all npt/asphere 2.0 2.0 0.1 xyz 0.0 1.0 1.0
fix	     2 all enforce2d

# equilibrate to shrink box around dilute system

run	     2000
Step rot E_pair TotEng Press Volume
0    2.2718861            0        2.394      0.04788        20000
Averages over the last 11 of 21 rows, steps 1000 to 2000:
rot E_pair TotEng Press Volume
2.01124 0.10619 2.1095 0.78818 2438.68
Loop time of 2.3213 on 1 procs for 2000 steps with 400 atoms

Pair  time (%) = 1.99781 (86.0641)
Neigh time (%) = 0.014091 (0.60703)
Comm  time (%) = 0.0165789 (0.714207)
Outpt time (%) = 0.034477 (1.48524)
Other time (%) = 0.258347 (11.1294)

# run dynamics on dense system

unfix	     1
fix	     1 all nve/asphere

run	     2000
Step rot E_pair TotEng Press Volume
2000    1.9340159   0.16879369    2.1186931    1.3526231    1658.4096
Averages over the last 11 of 21 rows, steps 3000 to 4000:
rot E_pair TotEng Press Volume
1.91973 0.18401 2.08272 1.35467 1658.41
Loop time of 4.08604 on 1 procs for 2000 steps with 400 atoms

Pair  time (%) = 3.80795 (93.1941)
Neigh time (%) = 0.00631857 (0.154638)
Comm  time (%) = 0.0228438 (0.55907)
Outpt time (%) = 0.0349987 (0.856542)
Other time (%) = 0.213933 (5.23569)
