LAMMPS (22 Jan 2008)
# GayBerne ellipsoids in LJ background fluid

units	     lj
atom_style   ellipsoid
dimension    2

lattice	     sq 0.02
Lattice spacing in x,y,z = 7.07107 7.07107 7.07107
region	     box block 0 20 0 20 -0.5 0.5
create_box   2 box
Created orthogonal box = (0 0 -3.53553) to (141.421 141.421 3.53553)
create_atoms 1 box
Created 400 atoms

set	     group all type/fraction 2 0.1 95392
  45 settings made for type/fraction
set	     group all quat/random 18238
  400 settings made for quat/random

mass	     1 1.0
mass	     2 1.5
shape	     1 1 1 1
shape	     2 3 1 1

compute	     rot all temp/asphere
velocity     all create 2.4 87287 loop geom

pair_style   gayberne 1.0 3.0 1.0 4.0
pair_coeff   1 1 3.0 1.0 1 1 1 1 1 1 2.5
pair_coeff   1 2 3.0 1.0 1 1 1 0 0 0
pair_coeff   2 2 1.0 1.0 1 1 0.2 0 0 0

#pair_style   resquared 4.0
#pair_coeff   1 1 3.0 1 1 1 1 1 1 1 2.5
#pair_coeff   1 2 3.0 1 1 1 1 0 0 0
#pair_coeff   2 2 1.0 1 1 1 0.2 0 0 0

neighbor     0.8 bin

thermo_style custom step c_rot epair etotal press vol
thermo	     100

timestep     0.002

dump	     1 all custom 100 dump.gayberne 	     tag type x y z quatw quati quatj quatk

#dump	     1 all custom 100 dump.resquared #	     tag type x y z quatw quati quatj quatk

fix	     1 all npt/asphere 2.0 2.0 0.1 xyz 0.0 1.0 1.0
fix	     2 all enforce2d

# equilibrate to shrink box around dilute system

run	     2000
Step rot E_pair TotEng Press Volume
0    2.1564825            0        2.391      0.04782        20000
Averages over the last 11 of 21 rows, steps 1000 to 2000:
rot E_pair TotEng Press Volume
1.95184 -3.63695 -1.58257 1.00573 998.523
Loop time of 1.46444 on 4 procs for 2000 steps with 400 atoms

Pair  time (%) = 0.262376 (17.9165)
Neigh time (%) = 0.00438559 (0.299471)
Comm  time (%) = 0.695195 (47.4716)
Outpt time (%) = 0.0550858 (3.76155)
Other time (%) = 0.447401 (30.5509)

# run dynamics on dense system

unfix	     1
fix	     1 all nve/asphere

run	     2000
Step rot E_pair TotEng Press Volume
2000    1.9665091   -3.2421939   -1.2158181   0.66817261    1162.3788
Averages over the last 11 of 21 rows, steps 3000 to 4000:
rot E_pair TotEng Press Volume
1.95715 -3.23254 -1.19126 0.721986 1162.38
Loop time of 1.30653 on 4 procs for 2000 steps with 400 atoms

Pair  time (%) = 0.327121 (25.0374)
Neigh time (%) = 0.00245857 (0.188176)
Comm  time (%) = 0.719629 (55.0794)
Outpt time (%) = 0.0561987 (4.30137)
Other time (%) = 0.201123 (15.3937)
