LAMMPS (7 Jul 2009)
# 2-d LJ flow simulation

dimension	2
boundary	p s p

atom_style	atomic
neighbor	0.3 bin
neigh_modify	delay 5

# create geometry

lattice		hex 0.7
Lattice spacing in x,y,z = 1.28436 2.22457 1.28436
region		box block 0 20 0 10 -0.25 0.25
create_box	3 box
Created orthogonal box = (0 0 -0.321089) to (25.6871 22.2457 0.321089)
create_atoms	1 box
Created 420 atoms

mass		1 1.0
mass		2 1.0
mass		3 1.0

# LJ potentials

pair_style	lj/cut 1.12246
pair_coeff	* * 1.0 1.0 1.12246

# define groups

region	     1 block INF INF INF 1.25 INF INF
group	     lower region 1
60 atoms in group lower
region	     2 block INF INF 8.75 INF INF INF
group	     upper region 2
60 atoms in group upper
group	     boundary union lower upper
120 atoms in group boundary
group	     flow subtract all boundary
300 atoms in group flow

set	     group lower type 2
  60 settings made for type
set	     group upper type 3
  60 settings made for type

# initial velocities

compute	     mobile flow temp
velocity     flow create 1.0 482748 temp mobile
fix	     1 all nve
fix	     2 flow temp/rescale 200 1.0 1.0 0.02 1.0
fix_modify   2 temp mobile

# Couette flow

velocity     lower set 0.0 0.0 0.0
velocity     upper set 3.0 0.0 0.0
fix	     3 boundary setforce 0.0 0.0 0.0
fix	     4 all enforce2d

# Poisseuille flow

#velocity     boundary set 0.0 0.0 0.0
#fix	     3 lower setforce 0.0 0.0 0.0
#fix	     4 upper setforce 0.0 NULL 0.0
#fix	     5 upper aveforce 0.0 -1.0 0.0
#fix	     6 flow addforce 0.5 0.0 0.0
#fix	     7 all enforce2d

# Run

timestep	0.003
thermo		500
thermo_modify	temp mobile

dump		1 all atom 50 dump.flow
run		10000
Step Temp E_pair E_mol TotEng Press Volume
0            1            0            0   0.71190476    0.5232453    571.43371
Averages over the last 11 of 21 rows, steps 5000 to 10000:
Temp E_pair E_mol TotEng Press Volume
1.02867 -0.442571 0 0.289741 2.39255 571.434
Loop time of 3.45458 on 4 procs for 10000 steps with 420 atoms

Pair  time (%) = 0.0726623 (2.10336)
Neigh time (%) = 0.0228513 (0.661479)
Comm  time (%) = 2.63741 (76.3452)
Outpt time (%) = 0.164288 (4.75566)
Other time (%) = 0.55737 (16.1343)
