LAMMPS (5 Jun 2010)
# lj test of msst shock dynamics.

# Energy in eV, time in ps, distance in angstroms.
units		metal
boundary        p p p

atom_style	atomic
timestep        1e-03

lattice		fcc 5.3589
Lattice spacing in x,y,z = 5.3589 5.3589 5.3589

## Specify the box as a given number of unit cells.
region		box1 block 0 18 0 18 0 18 units lattice

## Instantiate the system.
create_box	1 box1
Created orthogonal box = (0 0 0) to (96.4602 96.4602 96.4602)
create_atoms    1 region box1
Created 23328 atoms

mass		1 40.00

# Initial velocities correspond to around 300K.
velocity   all create 600.0 9999

pair_style	lj/cut  10
pair_coeff	1 1 0.01032 3.405

timestep 2e-3

# Equilibrate the system.
fix 2 all nve
thermo		10

run 1000
Step Temp E_pair E_mol TotEng Press
0          600   -1943.9014            0   -134.75058    992.06384
Averages over the last 51 of 101 rows, steps 500 to 1000:
Temp E_pair E_mol TotEng Press
296.435 -1045.42 0 -151.599 8358.33
Loop time of 49.6595 on 4 procs for 1000 steps with 23328 atoms

Pair  time (%) = 29.4513 (59.3064)
Neigh time (%) = 1.2821 (2.58179)
Comm  time (%) = 17.4227 (35.0844)
Outpt time (%) = 0.133337 (0.268503)
Other time (%) = 1.37008 (2.75894)

unfix 2

# MSST fix
fix		msst all msst z 28.0 q 200 mu 3e2 tscale 0.01

MSST parameters
Shock in z direction
The cell mass-like parameter qmass (units of mass^2/length^4) =  2.00000e+02
The shock velocity =  2.80000e+01
The artificial viscosity (units of mass/length/time) =  3.00000e+02
Initial pressure calculated on first step
Initial volume calculated on first step
Initial energy calculated on first step

End of MSST parameters

# this is needed to make etotal equal the MSST conserved quantity
fix_modify msst energy yes

variable dhug equal f_msst[1]
variable dray equal f_msst[2]
variable lgr_vel equal f_msst[3]
variable lgr_pos equal f_msst[4]

thermo_style custom step temp ke pe lx ly lz pxx pyy pzz etotal v_dhug v_dray v_lgr_vel v_lgr_pos f_msst

run	        6000
v0 calculated to be  8.97521e+05
p0 calculated to be  8.48301e+03
e0 calculated to be -1.51662e+02
initial strain rate of -3.02862e+00 established by reducing temperature by factor of  1.00000e-02
Step Temp KinEng PotEng Lx Ly Lz Pxx Pyy Pzz TotEng dhug dray lgr_vel lgr_pos msst
1000    289.59755    873.20941   -1024.8717      96.4602      96.4602      96.4602    8449.6554    8430.2727    8472.5135   -151.66233    1.4626139   -10.498474            0            0    8.8202971
Averages over the last 301 of 601 rows, steps 4000 to 7000:
Temp KinEng PotEng Lx Ly Lz Pxx Pyy Pzz TotEng dhug dray lgr_vel lgr_pos msst
570.907 1721.43 -1893.77 96.4602 96.4602 77.4902 35003 35037 35108 -172.339 3.49261 6.81928 5.50653 -218.038 -2400.78
Loop time of 397.076 on 4 procs for 6000 steps with 23328 atoms

Pair  time (%) = 238.196 (59.9875)
Neigh time (%) = 13.2171 (3.32862)
Comm  time (%) = 90.9414 (22.9028)
Outpt time (%) = 1.60804 (0.404971)
Other time (%) = 53.1133 (13.3761)
