LAMMPS (5 Jun 2010)
# lj test of msst shock dynamics.

# Energy in eV, time in ps, distance in angstroms.
units		metal
boundary        p p p

atom_style	atomic
timestep        1e-03

lattice		fcc 5.3589
Lattice spacing in x,y,z = 5.3589 5.3589 5.3589

## Specify the box as a given number of unit cells.
region		box1 block 0 18 0 18 0 18 units lattice

## Instantiate the system.
create_box	1 box1
Created orthogonal box = (0 0 0) to (96.4602 96.4602 96.4602)
create_atoms    1 region box1
Created 23328 atoms

mass		1 40.00

# Initial velocities correspond to around 300K.
velocity   all create 600.0 9999

pair_style	lj/cut  10
pair_coeff	1 1 0.01032 3.405

timestep 2e-3

# Equilibrate the system.
fix 2 all nve
thermo		10

run 1000
Step Temp E_pair E_mol TotEng Press
0          600   -1943.9014            0   -134.75058    992.06384
Averages over the last 51 of 101 rows, steps 500 to 1000:
Temp E_pair E_mol TotEng Press
297.225 -1047.82 0 -151.609 8339.34
Loop time of 84.7038 on 1 procs for 1000 steps with 23328 atoms

Pair  time (%) = 79.2527 (93.5645)
Neigh time (%) = 3.03626 (3.58456)
Comm  time (%) = 0.582074 (0.687187)
Outpt time (%) = 0.164439 (0.194134)
Other time (%) = 1.66833 (1.9696)

unfix 2

# MSST fix
fix		msst all msst z 28.0 q 200 mu 3e2 tscale 0.01

MSST parameters
Shock in z direction
The cell mass-like parameter qmass (units of mass^2/length^4) =  2.00000e+02
The shock velocity =  2.80000e+01
The artificial viscosity (units of mass/length/time) =  3.00000e+02
Initial pressure calculated on first step
Initial volume calculated on first step
Initial energy calculated on first step

End of MSST parameters

# this is needed to make etotal equal the MSST conserved quantity
fix_modify msst energy yes

variable dhug equal f_msst[1]
variable dray equal f_msst[2]
variable lgr_vel equal f_msst[3]
variable lgr_pos equal f_msst[4]

thermo_style custom step temp ke pe lx ly lz pxx pyy pzz etotal v_dhug v_dray v_lgr_vel v_lgr_pos f_msst

run	        6000
v0 calculated to be  8.97521e+05
p0 calculated to be  8.45221e+03
e0 calculated to be -1.51680e+02
initial strain rate of -3.02847e+00 established by reducing temperature by factor of  1.00000e-02
Step Temp KinEng PotEng Lx Ly Lz Pxx Pyy Pzz TotEng dhug dray lgr_vel lgr_pos msst
1000    289.56881    873.12276   -1024.8032      96.4602      96.4602      96.4602     8409.335    8498.2456    8441.7476   -151.68042    1.4624687   -10.459848            0            0    8.8194218
Averages over the last 301 of 601 rows, steps 4000 to 7000:
Temp KinEng PotEng Lx Ly Lz Pxx Pyy Pzz TotEng dhug dray lgr_vel lgr_pos msst
571.637 1723.63 -1896.03 96.4602 96.4602 77.4535 35103.6 35087.6 35117.8 -172.401 3.40052 -4.03214 5.51717 -218.106 -2404.87
Loop time of 683.273 on 1 procs for 6000 steps with 23328 atoms

Pair  time (%) = 563.153 (82.42)
Neigh time (%) = 28.4223 (4.15973)
Comm  time (%) = 3.35825 (0.491495)
Outpt time (%) = 1.77836 (0.260271)
Other time (%) = 86.5608 (12.6686)
