LAMMPS (22 Jan 2008)
# 2d indenter simulation

dimension	2
boundary	p s p

atom_style	atomic
neighbor	0.3 bin
neigh_modify	delay 5

# create geometry

lattice		hex 0.9
Lattice spacing in x,y,z = 1.1327 1.96189 1.1327
region		box block 0 20 0 10 -0.25 0.25
create_box	2 box
Created orthogonal box = (0 0 -0.283174) to (22.6539 19.6189 0.283174)
create_atoms	1 box
Created 420 atoms

mass		1 1.0
mass		2 1.0

# LJ potentials

pair_style	lj/cut 2.5
pair_coeff	* * 1.0 1.0 2.5

# define groups

region	        1 block INF INF INF 1.25 INF INF
group		lower region 1
60 atoms in group lower
group		mobile subtract all lower
360 atoms in group mobile
set		group lower type 2
  60 settings made for type

# initial velocities

compute	  	new mobile temp
velocity	mobile create 0.2 482748 temp new
fix		1 all nve
fix		2 lower setforce 0.0 0.0 0.0
fix		3 all temp/rescale 100 0.1 0.1 0.01 1.0

# indenter

fix		4 all indent 1000.0 sphere 10 13 0 5.0 vel 0.0 -0.02 0.0
fix		5 all enforce2d

# Run with indenter

timestep	0.003
thermo		1000
thermo_modify	temp new

dump		1 all atom 250 dump.indent
run		30000
Step Temp E_pair E_mol TotEng Press Volume
0          0.2   -3.1727576            0   -3.0020433   -1.4366826    444.44898
Averages over the last 16 of 31 rows, steps 15000 to 30000:
Temp E_pair E_mol TotEng Press Volume
0.121068 -3.01132 0 -2.90798 1.09861 482.106
Loop time of 14.6334 on 4 procs for 30000 steps with 420 atoms

Pair  time (%) = 1.07639 (7.3557)
Neigh time (%) = 0.0313419 (0.214181)
Comm  time (%) = 10.5831 (72.3219)
Outpt time (%) = 0.117674 (0.804145)
Other time (%) = 2.82484 (19.3041)

# Run without indenter

unfix           4
run		30000
Step Temp E_pair E_mol TotEng Press Volume
30000    0.1212253   -3.0101062            0   -2.9066317   0.66472805     509.0072
Averages over the last 16 of 31 rows, steps 45000 to 60000:
Temp E_pair E_mol TotEng Press Volume
0.116666 -3.07408 0 -2.9745 -0.282326 506.217
Loop time of 14.8577 on 4 procs for 30000 steps with 420 atoms

Pair  time (%) = 1.05365 (7.09162)
Neigh time (%) = 0.0316316 (0.212898)
Comm  time (%) = 10.8588 (73.0857)
Outpt time (%) = 0.117559 (0.791232)
Other time (%) = 2.796 (18.8186)
