LAMMPS (22 June 2007)
# 2d indenter simulation

dimension	2
boundary	p s p

atom_style	atomic
neighbor	0.3 bin
neigh_modify	delay 5

# create geometry

lattice		hex 0.9
Lattice spacing in x,y,z = 1.1327 1.96189 1.1327
region		box block 0 20 0 10 -0.25 0.25
create_box	2 box
Created orthogonal box = (0 0 -0.283174) to (22.6539 19.6189 0.283174)
create_atoms	1 box
Created 420 atoms

mass		1 1.0
mass		2 1.0

# LJ potentials

pair_style	lj/cut 2.5
pair_coeff	* * 1.0 1.0 2.5

# define groups

region	        1 block INF INF INF 1.25 INF INF
group		lower region 1
60 atoms in group lower
group		mobile subtract all lower
360 atoms in group mobile
set		group lower type 2
  60 settings made for type

# initial velocities

compute	  	new mobile temp
velocity	mobile create 0.2 482748 temp new
fix		1 all nve
fix		2 lower setforce 0.0 0.0 0.0
fix		3 all temp/rescale 100 0.1 0.1 0.01 1.0

# indenter

fix		4 all indent 1000.0 sphere 10 13 0 5.0 vel 0.0 -0.02 0.0
fix		5 all enforce2d

# Run with indenter

timestep	0.003
thermo		1000
thermo_modify	temp new

dump		1 all atom 250 dump.indent
run		30000
Step Temp E_pair E_mol TotEng Press Volume
0          0.2   -3.1727576            0   -3.0020433   -1.6911656    251.71282
Averages over the last 16 of 31 rows, steps 15000 to 30000:
Temp E_pair E_mol TotEng Press Volume
0.118597 -3.01905 0 -2.91782 1.40336 261.909
Loop time of 14.1353 on 1 procs for 30000 steps with 420 atoms

Pair  time (%) = 10.7241 (75.8675)
Neigh time (%) = 0.304084 (2.15125)
Comm  time (%) = 0.321909 (2.27735)
Outpt time (%) = 0.401015 (2.83699)
Other time (%) = 2.38419 (16.867)

# Run without indenter

unfix           4
run		30000
Step Temp E_pair E_mol TotEng Press Volume
30000   0.11102647   -3.0064551            0   -2.9116861    1.3929673    268.87157
Averages over the last 16 of 31 rows, steps 45000 to 60000:
Temp E_pair E_mol TotEng Press Volume
0.116622 -3.08215 0 -2.9826 -0.379892 263.604
Loop time of 13.6011 on 1 procs for 30000 steps with 420 atoms

Pair  time (%) = 10.6377 (78.2117)
Neigh time (%) = 0.311073 (2.28711)
Comm  time (%) = 0.330723 (2.43159)
Outpt time (%) = 0.267656 (1.9679)
Other time (%) = 2.054 (15.1017)
