LAMMPS (9 Jan 2009)
# 2d indenter simulation

dimension	2
boundary	p s p

atom_style	atomic
neighbor	0.3 bin
neigh_modify	delay 5

# create geometry

lattice		hex 0.9
Lattice spacing in x,y,z = 1.1327 1.96189 1.1327
region		box block 0 20 0 10 -0.25 0.25
create_box	2 box
Created orthogonal box = (0 0 -0.283174) to (22.6539 19.6189 0.283174)
create_atoms	1 box
Created 420 atoms

mass		1 1.0
mass		2 1.0

# LJ potentials

pair_style	lj/cut 2.5
pair_coeff	* * 1.0 1.0 2.5

# define groups

region	        1 block INF INF INF 1.25 INF INF
group		lower region 1
60 atoms in group lower
group		mobile subtract all lower
360 atoms in group mobile
set		group lower type 2
  60 settings made for type

# initial velocities

compute	  	new mobile temp
velocity	mobile create 0.2 482748 temp new
fix		1 all nve
fix		2 lower setforce 0.0 0.0 0.0
fix		3 all temp/rescale 100 0.1 0.1 0.01 1.0

# indenter

fix		4 all indent 1000.0 sphere 10 13 0 5.0 vel 0.0 -0.02 0.0
fix		5 all enforce2d

# Run with indenter

timestep	0.003
thermo		1000
thermo_modify	temp new

dump		1 all atom 250 dump.indent
run		30000
Step Temp E_pair E_mol TotEng Press Volume
0          0.2   -3.1727576            0   -3.0018052   -1.4364576    444.44898
Averages over the last 16 of 31 rows, steps 15000 to 30000:
Temp E_pair E_mol TotEng Press Volume
0.11773 -3.01515 0 -2.91451 1.11905 466.756
Loop time of 4.3524 on 1 procs for 30000 steps with 420 atoms

Pair  time (%) = 3.35689 (77.1274)
Neigh time (%) = 0.0960853 (2.20764)
Comm  time (%) = 0.0587516 (1.34987)
Outpt time (%) = 0.0790317 (1.81582)
Other time (%) = 0.761639 (17.4993)

# Run without indenter

unfix           4
run		30000
Step Temp E_pair E_mol TotEng Press Volume
30000    0.1137611   -2.9910145            0   -2.8937758    1.5390363    476.49487
Averages over the last 16 of 31 rows, steps 45000 to 60000:
Temp E_pair E_mol TotEng Press Volume
0.117323 -3.07659 0 -2.97631 -0.308883 486.488
Loop time of 4.04239 on 1 procs for 30000 steps with 420 atoms

Pair  time (%) = 3.33166 (82.418)
Neigh time (%) = 0.0980058 (2.42445)
Comm  time (%) = 0.0587137 (1.45245)
Outpt time (%) = 0.0790043 (1.9544)
Other time (%) = 0.475009 (11.7507)
