LAMMPS (21 May 2008)
# small Peridynamic cylinder hit by projectile

units si
boundary        s s s
atom_style      peri
atom_modify	map array
neighbor        0.0010 bin

# small target

lattice         sc 0.0005
Lattice spacing in x,y,z = 0.0005 0.0005 0.0005
region          target cylinder y 0.0 0.0 0.0050 -0.0050 0.0 units box
create_box      1 target
Created orthogonal box = (-0.005 -0.005 -0.005) to (0.005 0 0.005)
create_atoms    1 region target
Created 3487 atoms

pair_style      peri/pmb
pair_coeff      * * 1.6863e22 0.0015001 0.0005 0.25
set             group all density 2200
  3487 settings made for density

set             group all volume 1.25e-10
  3487 settings made for volume
velocity        all set 0.0 0.0 0.0 sum no units box
fix             1 all nve

# spherical indenter to shatter target

fix             2 all indent 1e17 sphere 0.0000 0.00155 0.0000 0.0015 		vel 0.0 -100.0 0.0 units box

compute         1 all damage/atom
timestep        1.0e-7
thermo          100

dump            1 all custom 100 dump.peri tag type x y z c_1

run             1000
Peridynamic bonds:
  total # of bonds = 335966
  bonds/atom = 96.3482
Step Temp E_pair E_mol TotEng Press Volume
0            0            0            0            0            0  5.41008e-07
Averages over the last 6 of 11 rows, steps 500 to 1000:
Temp E_pair E_mol TotEng Press Volume
9.78374e+27 1.14282e+07 0 7.17758e+08 2.12929e+14 2.45903e-06
Loop time of 64.1566 on 1 procs for 1000 steps with 3487 atoms

Pair  time (%) = 62.9492 (98.1181)
Neigh time (%) = 0.861746 (1.34319)
Comm  time (%) = 0.00329423 (0.00513467)
Outpt time (%) = 0.100208 (0.156193)
Other time (%) = 0.242142 (0.377423)
