LAMMPS (22 June 2007)
# Point dipoles in a 2d box

units		lj
atom_style	dipole
dimension	2

lattice		sq2 0.7
Lattice spacing in x,y,z = 1.69031 1.69031 1.69031
region		box block 0 10 0 10 -0.5 0.5
create_box	1 box
Created orthogonal box = (0 0 -0.845154) to (16.9031 16.9031 0.845154)
create_atoms	1 box
Created 200 atoms

mass		1 1.0
shape		1 1 1 1
dipole		1 0.75
set		group all dipole/random 98934
  200 settings made for dipole/random

velocity	all create 0.0 87287 mom no

pair_style	dipole/cut 2.5
pair_coeff	* * 1.0 1.0

neighbor	0.3 bin
neigh_modify	delay 0

fix		1 all nve/dipole
fix		2 all enforce2d

timestep	0.005

thermo_style	dipole
thermo		500

dump		1 all custom 200 dump.dipole tag type x y z mux muy muz

run		10000
Step Temp E_pair RotKEdip TotEng Press
0            0   -2.1284412            0   -2.1284412  -0.98973217
Averages over the last 11 of 21 rows, steps 5000 to 10000:
Temp E_pair RotKEdip TotEng Press
0.451712 -2.70955 0.297353 -2.26123 -0.0276149
Loop time of 2.70823 on 4 procs for 10000 steps with 200 atoms

Pair  time (%) = 0.644681 (23.8045)
Neigh time (%) = 0.0255789 (0.944486)
Comm  time (%) = 1.55045 (57.2495)
Outpt time (%) = 0.0430555 (1.5898)
Other time (%) = 0.444467 (16.4117)
