LAMMPS (22 June 2007)
# Point dipoles in a 2d box

units		lj
atom_style	dipole
dimension	2

lattice		sq2 0.7
Lattice spacing in x,y,z = 1.69031 1.69031 1.69031
region		box block 0 10 0 10 -0.5 0.5
create_box	1 box
Created orthogonal box = (0 0 -0.845154) to (16.9031 16.9031 0.845154)
create_atoms	1 box
Created 200 atoms

mass		1 1.0
shape		1 1 1 1
dipole		1 0.75
set		group all dipole/random 98934
  200 settings made for dipole/random

velocity	all create 0.0 87287 mom no

pair_style	dipole/cut 2.5
pair_coeff	* * 1.0 1.0

neighbor	0.3 bin
neigh_modify	delay 0

fix		1 all nve/dipole
fix		2 all enforce2d

timestep	0.005

thermo_style	dipole
thermo		500

dump		1 all custom 200 dump.dipole tag type x y z mux muy muz

run		10000
Step Temp E_pair RotKEdip TotEng Press
0            0   -2.1284412            0   -2.1284412  -0.98973217
Averages over the last 11 of 21 rows, steps 5000 to 10000:
Temp E_pair RotKEdip TotEng Press
0.458097 -2.6922 0.29819 -2.23754 -0.0479124
Loop time of 6.7855 on 1 procs for 10000 steps with 200 atoms

Pair  time (%) = 5.39439 (79.4989)
Neigh time (%) = 0.164115 (2.41861)
Comm  time (%) = 0.264522 (3.89834)
Outpt time (%) = 0.1165 (1.7169)
Other time (%) = 0.845967 (12.4673)
