LAMMPS (7 Jul 2009)
# Point dipoles in a 2d box

units		lj
atom_style	dipole
dimension	2

lattice		sq2 0.7
Lattice spacing in x,y,z = 1.69031 1.69031 1.69031
region		box block 0 10 0 10 -0.5 0.5
create_box	1 box
Created orthogonal box = (0 0 -0.845154) to (16.9031 16.9031 0.845154)
create_atoms	1 box
Created 200 atoms

mass		1 1.0
shape		1 1 1 1
dipole		1 0.75
set		group all dipole/random 98934
  200 settings made for dipole/random

velocity	all create 0.0 87287 mom no

pair_style	dipole/cut 2.5
pair_coeff	* * 1.0 1.0

neighbor	0.3 bin
neigh_modify	delay 0

fix		1 all nve/sphere update dipole
fix		2 all enforce2d

timestep	0.005

compute		erot all erotate/sphere
thermo_style	custom step temp epair c_erot etotal press
thermo		500

dump		1 all custom 200 dump.dipole id type x y z mux muy muz

run		10000
Step Temp E_pair erot TotEng Press
0            0   -2.1909822            0   -2.1909822   -2.5750971
Averages over the last 11 of 21 rows, steps 5000 to 10000:
Temp E_pair erot TotEng Press
0.435505 -2.78074 0.221299 -2.34741 -0.105008
Loop time of 4.18289 on 4 procs for 10000 steps with 200 atoms

Pair  time (%) = 0.441261 (10.5492)
Neigh time (%) = 0.0162298 (0.388005)
Comm  time (%) = 2.90346 (69.4129)
Outpt time (%) = 0.0493791 (1.1805)
Other time (%) = 0.772553 (18.4694)
