LAMMPS (22 June 2007)
# Big colloid particles and small LJ particles

units		lj
atom_style	atomic
dimension	2

lattice		sq 0.01
Lattice spacing in x,y,z = 10 10 10
region		box block 0 30 0 30 -0.5 0.5
create_box	2 box
Created orthogonal box = (0 0 -5) to (300 300 5)
create_atoms	1 box
Created 900 atoms

set		group all type/fraction 2 0.96 23984
  868 settings made for type/fraction

mass		1 9
mass		2 1

velocity	all create 1.44 87287 loop geom

# multi neighbor and comm for efficiency

neighbor	1 multi
neigh_modify	delay 0
communicate	multi

# colloid potential

pair_style	colloid 12.5
pair_coeff	1 1  1.0 1.0 5.0 5.0 12.5
pair_coeff	1 2  5.0 1.0 5.0 0.0 7.0
pair_coeff	2 2 10.0 1.0 0.0 0.0 2.5

fix		1 all npt 2.0 2.0 1.0 xyz 0.0 1.0 10.0 drag 1.0
fix		2 all enforce2d

dump		1 all atom 200 dump.colloid

thermo_style	custom step temp epair etotal press vol
thermo		1000

timestep	0.005

run		10000
Step Temp E_pair TotEng Press Volume
0         1.44            0       1.4376    0.0009584       900000
Averages over the last 6 of 11 rows, steps 5000 to 10000:
Temp E_pair TotEng Press Volume
2.0297 0.136001 2.16232 0.739703 5092.7
Loop time of 13.1171 on 1 procs for 10000 steps with 900 atoms

Pair  time (%) = 8.49344 (64.7507)
Neigh time (%) = 1.7079 (13.0204)
Comm  time (%) = 0.409296 (3.12032)
Outpt time (%) = 0.224203 (1.70924)
Other time (%) = 2.28229 (17.3993)
