LAMMPS (22 Jan 2008)
# Big colloid particles and small LJ particles

units		lj
atom_style	atomic
dimension	2

lattice		sq 0.01
Lattice spacing in x,y,z = 10 10 10
region		box block 0 30 0 30 -0.5 0.5
create_box	2 box
Created orthogonal box = (0 0 -5) to (300 300 5)
create_atoms	1 box
Created 900 atoms

set		group all type/fraction 2 0.96 23984
  861 settings made for type/fraction

mass		1 9
mass		2 1

velocity	all create 1.44 87287 loop geom

# multi neighbor and comm for efficiency

neighbor	1 multi
neigh_modify	delay 0
communicate	multi

# colloid potential

pair_style	colloid 12.5
pair_coeff	1 1  1.0 1.0 5.0 5.0 12.5
pair_coeff	1 2  5.0 1.0 5.0 0.0 7.0
pair_coeff	2 2 10.0 1.0 0.0 0.0 2.5

fix		1 all npt 2.0 2.0 1.0 xyz 0.0 1.0 10.0 drag 1.0
fix		2 all enforce2d

dump		1 all atom 200 dump.colloid

thermo_style	custom step temp epair etotal press vol
thermo		1000

timestep	0.005

run		50000
Step Temp E_pair TotEng Press Volume
0         1.44 -2.2136534e-06    1.4375978  0.014375923        90000
Averages over the last 26 of 51 rows, steps 25000 to 50000:
Temp E_pair TotEng Press Volume
1.9978 0.0474652 2.04194 0.720797 4491.06
Loop time of 36.2457 on 4 procs for 50000 steps with 900 atoms

Pair  time (%) = 2.46031 (6.78788)
Neigh time (%) = 0.449679 (1.24064)
Comm  time (%) = 19.0279 (52.4971)
Outpt time (%) = 0.376391 (1.03844)
Other time (%) = 13.9313 (38.4359)
