LAMMPS (22 June 2007)
# Big colloid particles and small LJ particles

units		lj
atom_style	atomic
dimension	2

lattice		sq 0.01
Lattice spacing in x,y,z = 10 10 10
region		box block 0 30 0 30 -0.5 0.5
create_box	2 box
Created orthogonal box = (0 0 -5) to (300 300 5)
create_atoms	1 box
Created 900 atoms

set		group all type/fraction 2 0.96 23984
  868 settings made for type/fraction

mass		1 9
mass		2 1

velocity	all create 1.44 87287 loop geom

# multi neighbor and comm for efficiency

neighbor	1 multi
neigh_modify	delay 0
communicate	multi

# colloid potential

pair_style	colloid 12.5
pair_coeff	1 1  1.0 1.0 5.0 5.0 12.5
pair_coeff	1 2  5.0 1.0 5.0 0.0 7.0
pair_coeff	2 2 10.0 1.0 0.0 0.0 2.5

fix		1 all npt 2.0 2.0 1.0 xyz 0.0 1.0 10.0 drag 1.0
fix		2 all enforce2d

dump		1 all atom 200 dump.colloid

thermo_style	custom step temp epair etotal press vol
thermo		1000

timestep	0.005

run		10000
Step Temp E_pair TotEng Press Volume
0         1.44            0       1.4376    0.0009584       900000
Averages over the last 6 of 11 rows, steps 5000 to 10000:
Temp E_pair TotEng Press Volume
2.04317 0.131936 2.17171 0.712543 5080.43
Loop time of 4.86636 on 4 procs for 10000 steps with 900 atoms

Pair  time (%) = 1.32706 (27.27)
Neigh time (%) = 0.274084 (5.63221)
Comm  time (%) = 1.98481 (40.7863)
Outpt time (%) = 0.0898068 (1.84546)
Other time (%) = 1.1906 (24.466)
