LAMMPS (5 Oct 2007)
# 2d micelle simulation

dimension	2

neighbor	0.3 bin
neigh_modify	delay 5

atom_style	bond

# Soft potential push-off

read_data	data.micelle
  orthogonal box = (0 0 -0.1) to (35.8569 35.8569 0.1)
  1200 atoms
  300 bonds
special_bonds	0 1 1

pair_style	soft 1.12246
pair_coeff	* * 1.0 20.0 1.12246

bond_style 	harmonic
bond_coeff	1 50.0 0.75

velocity	all create 0.45 2349852

fix		1 all nve
fix		2 all temp/rescale 100 0.45 0.45 0.02 1.0
fix		3 all enforce2d

thermo		50
run		1000
Step Temp E_pair E_mol TotEng Press
0         0.45   0.40003481 2.2200223e-06   0.84947453   0.78935018
Averages over the last 11 of 21 rows, steps 500 to 1000:
Temp E_pair E_mol TotEng Press
0.481142 0.524863 0.0896945 1.0951 5.41235
Loop time of 0.460497 on 4 procs for 1000 steps with 1200 atoms

Pair  time (%) = 0.0569301 (12.3627)
Bond  time (%) = 0.00555593 (1.20651)
Neigh time (%) = 0.00780004 (1.69383)
Comm  time (%) = 0.317558 (68.9598)
Outpt time (%) = 0.0093832 (2.03762)
Other time (%) = 0.0632702 (13.7395)

# Main run

pair_style	lj/cut 2.5

# solvent/head - full-size and long-range

pair_coeff	1 1 1.0 1.0 2.5
pair_coeff	2 2 1.0 1.0 2.5
pair_coeff	1 2 1.0 1.0 2.5

# tail/tail - size-averaged and long-range

pair_coeff	3 3 1.0 0.75 2.5
pair_coeff	4 4 1.0 0.50 2.5
pair_coeff	3 4 1.0 0.67 2.5

# solvent/tail - full-size and repulsive

pair_coeff	1 3 1.0 1.0 1.12246
pair_coeff	1 4 1.0 1.0 1.12246

# head/tail - size-averaged and repulsive

pair_coeff	2 3 1.0 0.88 1.12246
pair_coeff	2 4 1.0 0.75 1.12246

thermo		1000
dump		1 all atom 500 dump.micelle

reset_timestep	0
run		60000
Step Temp E_pair E_mol TotEng Press
0         0.45   -1.6864322   0.10106179   -1.1359329    3.7913551
Averages over the last 31 of 61 rows, steps 30000 to 60000:
Temp E_pair E_mol TotEng Press
0.4481 -2.10955 0.0614966 -1.60052 0.702942
Loop time of 29.1069 on 4 procs for 60000 steps with 1200 atoms

Pair  time (%) = 4.885 (16.783)
Bond  time (%) = 0.333251 (1.14492)
Neigh time (%) = 0.788879 (2.71028)
Comm  time (%) = 18.8174 (64.6494)
Outpt time (%) = 0.228079 (0.783592)
Other time (%) = 4.05426 (13.9288)
