LAMMPS (22 June 2007)
# 2d micelle simulation

dimension	2

neighbor	0.3 bin
neigh_modify	delay 5

atom_style	bond

# Soft potential push-off

read_data	data.micelle
  orthogonal box = (0 0 -0.1) to (35.8569 35.8569 0.1)
  1200 atoms
  300 bonds
special_bonds	0 1 1

pair_style	soft 1.12246
pair_coeff	* * 1.0 20.0 1.12246

bond_style 	harmonic
bond_coeff	1 50.0 0.75

velocity	all create 0.45 2349852

fix		1 all nve
fix		2 all temp/rescale 100 0.45 0.45 0.02 1.0
fix		3 all enforce2d

thermo		50
run		1000
Step Temp E_pair E_mol TotEng Press
0         0.45   0.40003481 2.2200223e-06   0.84947453    2.6311673
Averages over the last 11 of 21 rows, steps 500 to 1000:
Temp E_pair E_mol TotEng Press
0.481142 0.524863 0.0896945 1.0951 18.0412
Loop time of 0.292184 on 4 procs for 1000 steps with 1200 atoms

Pair  time (%) = 0.0816203 (27.9345)
Bond  time (%) = 0.00599533 (2.0519)
Neigh time (%) = 0.015554 (5.32335)
Comm  time (%) = 0.14458 (49.4825)
Outpt time (%) = 0.00397557 (1.36064)
Other time (%) = 0.040459 (13.8471)

# Main run

pair_style	lj/cut 2.5

# solvent/head - full-size and long-range

pair_coeff	1 1 1.0 1.0 2.5
pair_coeff	2 2 1.0 1.0 2.5
pair_coeff	1 2 1.0 1.0 2.5

# tail/tail - size-averaged and long-range

pair_coeff	3 3 1.0 0.75 2.5
pair_coeff	4 4 1.0 0.50 2.5
pair_coeff	3 4 1.0 0.67 2.5

# solvent/tail - full-size and repulsive

pair_coeff	1 3 1.0 1.0 1.12246
pair_coeff	1 4 1.0 1.0 1.12246

# head/tail - size-averaged and repulsive

pair_coeff	2 3 1.0 0.88 1.12246
pair_coeff	2 4 1.0 0.75 1.12246

thermo		1000
dump		1 all atom 500 dump.micelle

reset_timestep	0
run		60000
Step Temp E_pair E_mol TotEng Press
0         0.45   -1.6864322   0.10106179   -1.1359329     12.63785
Averages over the last 31 of 61 rows, steps 30000 to 60000:
Temp E_pair E_mol TotEng Press
0.448325 -2.11254 0.0592216 -1.60555 2.33381
Loop time of 22.1561 on 4 procs for 60000 steps with 1200 atoms

Pair  time (%) = 7.33887 (33.1235)
Bond  time (%) = 0.358887 (1.61981)
Neigh time (%) = 1.42228 (6.41939)
Comm  time (%) = 10.1198 (45.675)
Outpt time (%) = 0.320405 (1.44613)
Other time (%) = 2.59584 (11.7162)
